# generated using pymatgen
data_Nd2H48C39S3N14O19
_symmetry_space_group_name_H-M   'P 1'
_cell_length_a   11.64055851
_cell_length_b   17.42592532
_cell_length_c   25.61109055
_cell_angle_alpha   101.69410948
_cell_angle_beta   89.99983031
_cell_angle_gamma   89.99998767
_symmetry_Int_Tables_number   1
_chemical_formula_structural   Nd2H48C39S3N14O19
_chemical_formula_sum   'Nd8 H192 C156 S12 N56 O76'
_cell_volume   5087.31353048
_cell_formula_units_Z   4
loop_
 _symmetry_equiv_pos_site_id
 _symmetry_equiv_pos_as_xyz
  1  'x, y, z'
loop_
 _atom_site_type_symbol
 _atom_site_label
 _atom_site_symmetry_multiplicity
 _atom_site_fract_x
 _atom_site_fract_y
 _atom_site_fract_z
 _atom_site_occupancy
  Nd  Nd0  1  0.96653069  0.51080826  0.58050070  1
  Nd  Nd1  1  0.96652951  0.98919566  0.91950349  1
  Nd  Nd2  1  0.03347118  0.48919658  0.41950234  1
  Nd  Nd3  1  0.03346892  0.01080450  0.08049928  1
  Nd  Nd4  1  0.50702226  0.96149823  0.41895539  1
  Nd  Nd5  1  0.50702172  0.53850405  0.08104436  1
  Nd  Nd6  1  0.49297702  0.03850195  0.58104269  1
  Nd  Nd7  1  0.49297585  0.46149963  0.91895617  1
  H  H8  1  0.08762328  0.68766801  0.65300302  1
  H  H9  1  0.08762521  0.81233291  0.84699685  1
  H  H10  1  0.91238116  0.31233508  0.34699782  1
  H  H11  1  0.91237580  0.18766198  0.15300245  1
  H  H12  1  0.75504135  0.74673198  0.67590896  1
  H  H13  1  0.75504344  0.75326623  0.82408846  1
  H  H14  1  0.24496052  0.25326526  0.32408989  1
  H  H15  1  0.24495499  0.24673159  0.17591203  1
  H  H16  1  0.64008057  0.38206078  0.63218860  1
  H  H17  1  0.64008242  0.11793778  0.86781120  1
  H  H18  1  0.35992216  0.61794291  0.36781154  1
  H  H19  1  0.35992202  0.88205652  0.13218918  1
  H  H20  1  0.69074609  0.46526424  0.49757931  1
  H  H21  1  0.69074605  0.03473529  0.00242043  1
  H  H22  1  0.30925663  0.53474120  0.50242068  1
  H  H23  1  0.30925839  0.96525608  0.99757838  1
  H  H24  1  0.39113382  0.10745875  0.35998165  1
  H  H25  1  0.39113793  0.39254448  0.14001784  1
  H  H26  1  0.60886203  0.89254437  0.64001568  1
  H  H27  1  0.60886393  0.60745626  0.85998345  1
  H  H28  1  0.32994370  0.91184388  0.24769762  1
  H  H29  1  0.32994631  0.58815615  0.25230362  1
  H  H30  1  0.67005387  0.08815452  0.75230296  1
  H  H31  1  0.67004954  0.41184460  0.74769611  1
  H  H32  1  0.48394215  0.69741394  0.30983813  1
  H  H33  1  0.48393995  0.80258601  0.19016133  1
  H  H34  1  0.51605971  0.30258330  0.69016150  1
  H  H35  1  0.51606020  0.19741474  0.80983801  1
  H  H36  1  0.76139342  0.83169879  0.36448917  1
  H  H37  1  0.76138990  0.66829807  0.13551026  1
  H  H38  1  0.23861016  0.16829552  0.63550887  1
  H  H39  1  0.23860853  0.33169858  0.86449007  1
  H  H40  1  0.21403314  0.75546064  0.61557893  1
  H  H41  1  0.21402453  0.74454137  0.88442326  1
  H  H42  1  0.78597388  0.24454362  0.38442363  1
  H  H43  1  0.78596788  0.25546231  0.11557805  1
  H  H44  1  0.33295531  0.87530955  0.59538926  1
  H  H45  1  0.33295434  0.62469358  0.90461098  1
  H  H46  1  0.66704827  0.12469238  0.40460946  1
  H  H47  1  0.66704151  0.37530776  0.09538883  1
  H  H48  1  0.94892012  0.42046367  0.76528218  1
  H  H49  1  0.94891684  0.07953529  0.73471844  1
  H  H50  1  0.05108089  0.57953649  0.23471942  1
  H  H51  1  0.05107987  0.92046312  0.26528096  1
  H  H52  1  0.08012304  0.41810439  0.85150987  1
  H  H53  1  0.08011946  0.08189448  0.64849112  1
  H  H54  1  0.91988140  0.58189518  0.14849087  1
  H  H55  1  0.91987811  0.91810393  0.35150906  1
  H  H56  1  0.25240742  0.36313673  0.42227855  1
  H  H57  1  0.25241287  0.13686363  0.07772463  1
  H  H58  1  0.74758328  0.63686284  0.57772375  1
  H  H59  1  0.74759758  0.86313652  0.92227814  1
  H  H60  1  0.36982542  0.23130278  0.39964427  1
  H  H61  1  0.36982982  0.26869868  0.10035812  1
  H  H62  1  0.63016442  0.76869738  0.60035577  1
  H  H63  1  0.63017891  0.73130324  0.89964294  1
  H  H64  1  0.87462747  0.87941614  0.68898652  1
  H  H65  1  0.87463399  0.62058551  0.81101395  1
  H  H66  1  0.12536924  0.12058518  0.31101680  1
  H  H67  1  0.12536272  0.37941173  0.18898567  1
  H  H68  1  0.88446445  0.83620903  0.74617225  1
  H  H69  1  0.88446960  0.66378733  0.75382708  1
  H  H70  1  0.11553312  0.16378585  0.25382939  1
  H  H71  1  0.11552453  0.33620932  0.24617247  1
  H  H72  1  0.06042180  0.83246793  0.65772160  1
  H  H73  1  0.06042896  0.66753303  0.84227675  1
  H  H74  1  0.93957577  0.16753633  0.34228057  1
  H  H75  1  0.93956947  0.33246128  0.15772169  1
  H  H76  1  0.08328045  0.82438511  0.72547236  1
  H  H77  1  0.08328461  0.67561760  0.77452464  1
  H  H78  1  0.91671712  0.17561682  0.27452753  1
  H  H79  1  0.91671038  0.32437847  0.22547443  1
  H  H80  1  0.59926431  0.33153434  0.47853274  1
  H  H81  1  0.59926496  0.16846466  0.02146665  1
  H  H82  1  0.40074013  0.66847052  0.52146678  1
  H  H83  1  0.40074034  0.83152612  0.97853402  1
  H  H84  1  0.48081548  0.39754379  0.48813513  1
  H  H85  1  0.48081536  0.10245703  0.01186507  1
  H  H86  1  0.51918982  0.60245872  0.51186485  1
  H  H87  1  0.51919080  0.89753668  0.98813445  1
  H  H88  1  0.44512276  0.37481315  0.57531307  1
  H  H89  1  0.44512423  0.12518669  0.92468678  1
  H  H90  1  0.55487997  0.62518819  0.42468596  1
  H  H91  1  0.55488107  0.87480937  0.07531346  1
  H  H92  1  0.53555663  0.29165836  0.55778455  1
  H  H93  1  0.53555969  0.20834201  0.94221487  1
  H  H94  1  0.46445039  0.70834416  0.44221465  1
  H  H95  1  0.46444991  0.79165463  0.05778662  1
  H  H96  1  0.24662919  0.04307009  0.22003885  1
  H  H97  1  0.24663838  0.45692911  0.27996144  1
  H  H98  1  0.75336580  0.95692599  0.77995788  1
  H  H99  1  0.75335489  0.54307164  0.72003751  1
  H  H100  1  0.38722218  0.01305820  0.19834086  1
  H  H101  1  0.38722950  0.48694209  0.30165900  1
  H  H102  1  0.61277453  0.98693786  0.80165821  1
  H  H103  1  0.61276205  0.51306158  0.69834270  1
  H  H104  1  0.47850450  0.10350896  0.26930280  1
  H  H105  1  0.47851489  0.39649422  0.23069618  1
  H  H106  1  0.52148534  0.89649239  0.73069468  1
  H  H107  1  0.52148097  0.60350886  0.76930739  1
  H  H108  1  0.34885865  0.15710722  0.26922108  1
  H  H109  1  0.34886905  0.34289252  0.23077837  1
  H  H110  1  0.65113119  0.84289063  0.73077473  1
  H  H111  1  0.65112852  0.65710822  0.76922331  1
  H  H112  1  0.66965250  0.64472893  0.25479621  1
  H  H113  1  0.66965164  0.85527092  0.24520298  1
  H  H114  1  0.33034507  0.35526713  0.74520325  1
  H  H115  1  0.33034936  0.14473043  0.75479644  1
  H  H116  1  0.65975932  0.60515153  0.31353734  1
  H  H117  1  0.65976055  0.89484656  0.18646162  1
  H  H118  1  0.34023996  0.39484336  0.68646235  1
  H  H119  1  0.34024561  0.10515185  0.81353700  1
  H  H120  1  0.80588703  0.69040791  0.35728144  1
  H  H121  1  0.80588600  0.80958834  0.14271707  1
  H  H122  1  0.19411311  0.30958699  0.64271669  1
  H  H123  1  0.19411844  0.19040713  0.85728387  1
  H  H124  1  0.83865887  0.70793742  0.29279552  1
  H  H125  1  0.83865655  0.79205940  0.20720341  1
  H  H126  1  0.16134128  0.29205572  0.70720275  1
  H  H127  1  0.16134273  0.20793724  0.79279769  1
  H  H128  1  0.98274659  0.31798912  0.00642043  1
  H  H129  1  0.98274073  0.18201084  0.49357819  1
  H  H130  1  0.01725871  0.68201223  0.99357782  1
  H  H131  1  0.01725512  0.81798523  0.50642010  1
  H  H132  1  0.19790052  0.47357774  0.96253550  1
  H  H133  1  0.19789682  0.02642926  0.53746804  1
  H  H134  1  0.80210220  0.52643119  0.03746929  1
  H  H135  1  0.80210504  0.97357091  0.46253200  1
  H  H136  1  0.08897904  0.39361683  0.09374311  1
  H  H137  1  0.08898236  0.10638482  0.40625657  1
  H  H138  1  0.91101681  0.60638451  0.90625748  1
  H  H139  1  0.91101435  0.89361184  0.59374142  1
  H  H140  1  0.97176750  0.44676309  0.07266826  1
  H  H141  1  0.97177156  0.05323746  0.42733202  1
  H  H142  1  0.02822749  0.55323649  0.92733169  1
  H  H143  1  0.02822945  0.94675743  0.57266805  1
  H  H144  1  0.11413600  0.53819827  0.05988490  1
  H  H145  1  0.11414328  0.96180481  0.44011745  1
  H  H146  1  0.88585728  0.46180422  0.94011859  1
  H  H147  1  0.88586460  0.03819419  0.55988203  1
  H  H148  1  0.22766063  0.46943036  0.05876869  1
  H  H149  1  0.22766461  0.03057764  0.44123520  1
  H  H150  1  0.77233522  0.53057682  0.94123624  1
  H  H151  1  0.77233812  0.96942546  0.55876486  1
  H  H152  1  0.88116164  0.36480116  0.67573290  1
  H  H153  1  0.88116549  0.13519842  0.82426829  1
  H  H154  1  0.11883678  0.63519901  0.32426675  1
  H  H155  1  0.11883723  0.86480058  0.17573158  1
  H  H156  1  0.66103137  0.18110396  0.66748940  1
  H  H157  1  0.66103425  0.31889458  0.83250998  1
  H  H158  1  0.33896620  0.81889562  0.33250977  1
  H  H159  1  0.33896590  0.68110266  0.16748886  1
  H  H160  1  0.97705473  0.24061896  0.70740326  1
  H  H161  1  0.97705788  0.25938291  0.79259734  1
  H  H162  1  0.02294370  0.75938180  0.29259569  1
  H  H163  1  0.02294141  0.74061903  0.20740099  1
  H  H164  1  0.99272860  0.23945135  0.63765759  1
  H  H165  1  0.99273130  0.26054992  0.86234407  1
  H  H166  1  0.00726725  0.76054882  0.36234206  1
  H  H167  1  0.00726970  0.73945142  0.13765535  1
  H  H168  1  0.83752909  0.15079126  0.61354217  1
  H  H169  1  0.83752817  0.34920717  0.88645931  1
  H  H170  1  0.16246933  0.84920656  0.38645793  1
  H  H171  1  0.16247025  0.65079123  0.11354087  1
  H  H172  1  0.86734190  0.12299918  0.67518312  1
  H  H173  1  0.86734395  0.37700156  0.82482020  1
  H  H174  1  0.13265567  0.87700097  0.32481887  1
  H  H175  1  0.13265362  0.62299978  0.17518000  1
  H  H176  1  0.38621621  0.73584910  0.69220999  1
  H  H177  1  0.38620122  0.76414990  0.80778843  1
  H  H178  1  0.61379768  0.26415048  0.30778918  1
  H  H179  1  0.61379720  0.23585320  0.19221085  1
  H  H180  1  0.31154739  0.64013176  0.61135023  1
  H  H181  1  0.31153528  0.85987611  0.88864407  1
  H  H182  1  0.68846221  0.35987135  0.38864866  1
  H  H183  1  0.68846400  0.14013053  0.11135297  1
  H  H184  1  0.27243569  0.60031047  0.66770852  1
  H  H185  1  0.27243510  0.89969394  0.83227910  1
  H  H186  1  0.72756704  0.39969266  0.33228725  1
  H  H187  1  0.72757020  0.10031152  0.16771739  1
  H  H188  1  0.61993548  0.57493720  0.62527874  1
  H  H189  1  0.61993289  0.92505407  0.87471516  1
  H  H190  1  0.38006896  0.42505594  0.37471914  1
  H  H191  1  0.38007155  0.07494493  0.12528394  1
  H  H192  1  0.43651635  0.51400033  0.65729259  1
  H  H193  1  0.43652254  0.98599636  0.84269568  1
  H  H194  1  0.56347950  0.48599694  0.34270197  1
  H  H195  1  0.56348448  0.01400557  0.15730344  1
  H  H196  1  0.41841521  0.52016100  0.58906846  1
  H  H197  1  0.41841494  0.97984040  0.91091893  1
  H  H198  1  0.58158666  0.47983862  0.41092565  1
  H  H199  1  0.58159036  0.02016212  0.08907949  1
  C  C200  1  0.17936756  0.72158173  0.53049915  1
  C  C201  1  0.17936096  0.77842148  0.96950287  1
  C  C202  1  0.82063431  0.27842018  0.46950348  1
  C  C203  1  0.82062888  0.22158162  0.03049796  1
  C  C204  1  0.22467536  0.76850925  0.57614930  1
  C  C205  1  0.22466736  0.73149569  0.92385252  1
  C  C206  1  0.77533080  0.23149326  0.42385224  1
  C  C207  1  0.77532419  0.26850799  0.07614841  1
  C  C208  1  0.28705212  0.83310079  0.56551605  1
  C  C209  1  0.28704923  0.66690412  0.93448411  1
  C  C210  1  0.71295060  0.16690172  0.43448353  1
  C  C211  1  0.71294491  0.33309781  0.06551501  1
  C  C212  1  0.28755227  0.83473298  0.51164761  1
  C  C213  1  0.28755074  0.66527076  0.98835316  1
  C  C214  1  0.71244873  0.16526777  0.48835251  1
  C  C215  1  0.71244253  0.33473175  0.01164720  1
  C  C216  1  0.11476846  0.64669736  0.52351998  1
  C  C217  1  0.11476179  0.85330530  0.97648205  1
  C  C218  1  0.88523341  0.35330514  0.47648273  1
  C  C219  1  0.88523062  0.14669779  0.02351918  1
  C  C220  1  0.34507194  0.88832854  0.48226225  1
  C  C221  1  0.34507435  0.61167618  0.01773767  1
  C  C222  1  0.65492735  0.11167222  0.51773670  1
  C  C223  1  0.65492236  0.38832691  0.98226317  1
  C  C224  1  0.08459397  0.48769935  0.73786179  1
  C  C225  1  0.08459139  0.01229952  0.76213842  1
  C  C226  1  0.91540531  0.51229847  0.26213792  1
  C  C227  1  0.91540360  0.98770064  0.23786201  1
  C  C228  1  0.03295974  0.44770223  0.77318794  1
  C  C229  1  0.03295910  0.05229901  0.72681345  1
  C  C230  1  0.96704040  0.55229734  0.22681280  1
  C  C231  1  0.96704019  0.94770349  0.27318808  1
  C  C232  1  0.10133175  0.44661558  0.81848507  1
  C  C233  1  0.10133054  0.05338445  0.68151567  1
  C  C234  1  0.89867098  0.55338399  0.18151528  1
  C  C235  1  0.89866875  0.94661571  0.31848515  1
  C  C236  1  0.20489207  0.48546432  0.81653566  1
  C  C237  1  0.20488914  0.01453507  0.68346445  1
  C  C238  1  0.79510980  0.51453468  0.18346343  1
  C  C239  1  0.79510929  0.98546451  0.31653628  1
  C  C240  1  0.04132560  0.49881828  0.68589337  1
  C  C241  1  0.04132612  0.00118296  0.81410722  1
  C  C242  1  0.95867283  0.50118072  0.31410650  1
  C  C243  1  0.95867317  0.99881954  0.18589431  1
  C  C244  1  0.30077480  0.48945756  0.85435747  1
  C  C245  1  0.30077470  0.01054354  0.64564237  1
  C  C246  1  0.69922449  0.51054262  0.14564140  1
  C  C247  1  0.69922373  0.98945545  0.35435789  1
  C  C248  1  0.22843666  0.34099117  0.50218319  1
  C  C249  1  0.22844195  0.15900937  0.99781862  1
  C  C250  1  0.77155833  0.65900782  0.49781746  1
  C  C251  1  0.77156250  0.84099020  0.00218407  1
  C  C252  1  0.26951132  0.32526478  0.45023020  1
  C  C253  1  0.26951437  0.17473557  0.04977218  1
  C  C254  1  0.73048195  0.67473362  0.54977037  1
  C  C255  1  0.73049437  0.82526458  0.95023059  1
  C  C256  1  0.33073953  0.25426041  0.43812676  1
  C  C257  1  0.33074420  0.24574049  0.06187560  1
  C  C258  1  0.66925202  0.74573858  0.56187350  1
  C  C259  1  0.66926368  0.75426084  0.93812616  1
  C  C260  1  0.33634137  0.21687265  0.48095573  1
  C  C261  1  0.33634544  0.28312884  0.01904632  1
  C  C262  1  0.66365277  0.78312635  0.51904453  1
  C  C263  1  0.66365643  0.71687191  0.98095458  1
  C  C264  1  0.15645377  0.40701472  0.52815712  1
  C  C265  1  0.15645494  0.09298762  0.97184543  1
  C  C266  1  0.84354552  0.59298603  0.47184456  1
  C  C267  1  0.84354520  0.90701370  0.02815750  1
  C  C268  1  0.39134474  0.14106168  0.48364218  1
  C  C269  1  0.39134452  0.35894153  0.01636004  1
  C  C270  1  0.60865111  0.85893849  0.51635668  1
  C  C271  1  0.60865305  0.64106098  0.98364111  1
  C  C272  1  0.90119317  0.82666215  0.70302590  1
  C  C273  1  0.90119804  0.67333773  0.79697273  1
  C  C274  1  0.09880612  0.17333742  0.29697523  1
  C  C275  1  0.09879867  0.32665951  0.20302690  1
  C  C276  1  0.02862683  0.80544110  0.69033990  1
  C  C277  1  0.02863333  0.69455752  0.80965817  1
  C  C278  1  0.97136988  0.19456082  0.30966117  1
  C  C279  1  0.97136424  0.30543737  0.19034035  1
  C  C280  1  0.91441434  0.69607743  0.66000088  1
  C  C281  1  0.91441718  0.80392185  0.83999803  1
  C  C282  1  0.08558924  0.30392391  0.33999971  1
  C  C283  1  0.08558469  0.19607421  0.16000143  1
  C  C284  1  0.55829452  0.37964944  0.50689310  1
  C  C285  1  0.55829470  0.12034916  0.99310643  1
  C  C286  1  0.44171164  0.62035425  0.49310704  1
  C  C287  1  0.44171146  0.87964221  0.00689277  1
  C  C288  1  0.53123208  0.35528347  0.56063170  1
  C  C289  1  0.53123259  0.14471632  0.93936842  1
  C  C290  1  0.46877151  0.64471846  0.43936780  1
  C  C291  1  0.46877185  0.85527915  0.06063213  1
  C  C292  1  0.67986922  0.44670266  0.57357586  1
  C  C293  1  0.67986899  0.05329646  0.92642397  1
  C  C294  1  0.32013179  0.55330161  0.42642436  1
  C  C295  1  0.32013288  0.94669609  0.07357539  1
  C  C296  1  0.33323153  0.03093160  0.23373303  1
  C  C297  1  0.33323994  0.46906932  0.26626699  1
  C  C298  1  0.66676261  0.96906624  0.76626473  1
  C  C299  1  0.66675419  0.53093261  0.73373368  1
  C  C300  1  0.38431141  0.10078261  0.27359417  1
  C  C301  1  0.38432011  0.39921886  0.22640548  1
  C  C302  1  0.61568101  0.89921640  0.72640259  1
  C  C303  1  0.61567575  0.60078247  0.77359628  1
  C  C304  1  0.34658457  0.00029628  0.31751315  1
  C  C305  1  0.34658665  0.49970521  0.18248694  1
  C  C306  1  0.65341214  0.99970507  0.68248549  1
  C  C307  1  0.65341092  0.50029554  0.81751319  1
  C  C308  1  0.66557781  0.65990212  0.29863624  1
  C  C309  1  0.66557810  0.84009597  0.20136310  1
  C  C310  1  0.33442148  0.34009277  0.70136306  1
  C  C311  1  0.33442548  0.15990303  0.79863638  1
  C  C312  1  0.77007701  0.71013672  0.32246730  1
  C  C313  1  0.77007575  0.78985956  0.17753164  1
  C  C314  1  0.22992228  0.28985818  0.67753121  1
  C  C315  1  0.22992526  0.21013650  0.82246899  1
  C  C316  1  0.60358494  0.78578588  0.33676854  1
  C  C317  1  0.60358208  0.71421342  0.16323106  1
  C  C318  1  0.39641607  0.21421135  0.66323148  1
  C  C319  1  0.39641635  0.28578675  0.83676937  1
  C  C320  1  0.05502888  0.41864634  0.06077369  1
  C  C321  1  0.05503028  0.08135474  0.43922556  1
  C  C322  1  0.94496955  0.58135442  0.93922565  1
  C  C323  1  0.94496987  0.91864250  0.56077368  1
  C  C324  1  0.14058410  0.47745263  0.04419384  1
  C  C325  1  0.14058884  0.02255133  0.45580726  1
  C  C326  1  0.85941175  0.52255105  0.95580825  1
  C  C327  1  0.85941560  0.97744767  0.54419183  1
  C  C328  1  0.08472467  0.38637342  0.96826772  1
  C  C329  1  0.08472356  0.11363014  0.53173237  1
  C  C330  1  0.91527805  0.61363085  0.03173251  1
  C  C331  1  0.91527486  0.88636886  0.46826672  1
  C  C332  1  0.93050983  0.24104967  0.66987432  1
  C  C333  1  0.93051360  0.25895281  0.83012721  1
  C  C334  1  0.06948688  0.75895109  0.33012541  1
  C  C335  1  0.06948740  0.74104912  0.16987191  1
  C  C336  1  0.84481726  0.17243711  0.65682930  1
  C  C337  1  0.84481835  0.32756248  0.84317272  1
  C  C338  1  0.15518117  0.82756188  0.34317135  1
  C  C339  1  0.15518094  0.67243710  0.15682763  1
  C  C340  1  0.74397320  0.28783235  0.68143755  1
  C  C341  1  0.74397964  0.21216731  0.81856305  1
  C  C342  1  0.25602265  0.71216840  0.31856179  1
  C  C343  1  0.25602222  0.78783168  0.18143760  1
  C  C344  1  0.34504997  0.61967772  0.64642994  1
  C  C345  1  0.34503980  0.88032486  0.85356201  1
  C  C346  1  0.65495877  0.38032364  0.35356714  1
  C  C347  1  0.65496206  0.11968176  0.14643698  1
  C  C348  1  0.52899640  0.67131551  0.66525671  1
  C  C349  1  0.52899067  0.82867520  0.83474114  1
  C  C350  1  0.47101062  0.32867879  0.33474290  1
  C  C351  1  0.47100948  0.17132379  0.16525952  1
  C  C352  1  0.43473216  0.55453193  0.62924862  1
  C  C353  1  0.43472873  0.94546769  0.87074084  1
  C  C354  1  0.56527143  0.44546709  0.37074696  1
  C  C355  1  0.56527571  0.05453600  0.12925852  1
  S  S356  1  0.21425867  0.75658441  0.47435479  1
  S  S357  1  0.21425327  0.74341862  0.02564663  1
  S  S358  1  0.78574577  0.24341574  0.52564719  1
  S  S359  1  0.78574001  0.25658507  0.97435351  1
  S  S360  1  0.26606964  0.26878155  0.53592177  1
  S  S361  1  0.26607426  0.23121956  0.96408046  1
  S  S362  1  0.73392450  0.73121686  0.46407802  1
  S  S363  1  0.73392761  0.76877884  0.03592206  1
  S  S364  1  0.21697586  0.52423696  0.76018240  1
  S  S365  1  0.21697585  0.97576448  0.73981814  1
  S  S366  1  0.78302429  0.47576087  0.23981613  1
  S  S367  1  0.78302171  0.02423802  0.26018417  1
  N  N368  1  0.02419584  0.71992362  0.67431518  1
  N  N369  1  0.02420049  0.78007500  0.82568445  1
  N  N370  1  0.97580517  0.28007712  0.32568650  1
  N  N371  1  0.97579966  0.21991990  0.17431445  1
  N  N372  1  0.84170987  0.75718924  0.67421826  1
  N  N373  1  0.84171539  0.74281128  0.82577780  1
  N  N374  1  0.15829027  0.24281153  0.32577991  1
  N  N375  1  0.15828389  0.25718655  0.17422190  1
  N  N376  1  0.61966757  0.39583443  0.59602938  1
  N  N377  1  0.61966662  0.10416296  0.90397029  1
  N  N378  1  0.38033515  0.60416867  0.40397029  1
  N  N379  1  0.38033525  0.89583017  0.09602954  1
  N  N380  1  0.63742039  0.44568105  0.52340842  1
  N  N381  1  0.63741983  0.05431750  0.97659139  1
  N  N382  1  0.36258319  0.55432381  0.47659150  1
  N  N383  1  0.36258375  0.94567387  0.02340780  1
  N  N384  1  0.35467091  0.08038985  0.32479909  1
  N  N385  1  0.35467564  0.41961164  0.17520059  1
  N  N386  1  0.64532322  0.91961150  0.67519877  1
  N  N387  1  0.64532450  0.58038969  0.82480039  1
  N  N388  1  0.33058192  0.97015067  0.26528465  1
  N  N389  1  0.33058896  0.52985053  0.23471597  1
  N  N390  1  0.66941050  0.02984891  0.73471491  1
  N  N391  1  0.66940775  0.47015081  0.76528384  1
  N  N392  1  0.56940710  0.71169513  0.31658460  1
  N  N393  1  0.56940495  0.78830477  0.18341513  1
  N  N394  1  0.43059476  0.28830210  0.68341581  1
  N  N395  1  0.43059606  0.21169599  0.81658421  1
  N  N396  1  0.72114459  0.78899306  0.33743517  1
  N  N397  1  0.72114173  0.71100441  0.16256440  1
  N  N398  1  0.27885556  0.21100242  0.66256382  1
  N  N399  1  0.27885670  0.28899282  0.83743640  1
  N  N400  1  0.04524859  0.35934844  0.01186428  1
  N  N401  1  0.04524450  0.14065322  0.48813546  1
  N  N402  1  0.95475499  0.64065348  0.98813523  1
  N  N403  1  0.95475307  0.85934519  0.51186355  1
  N  N404  1  0.13468097  0.45814254  0.98603548  1
  N  N405  1  0.13468172  0.04186216  0.51396548  1
  N  N406  1  0.86531832  0.54186290  0.01396569  1
  N  N407  1  0.86532101  0.95813801  0.48603378  1
  N  N408  1  0.85435452  0.30875238  0.67606213  1
  N  N409  1  0.85436093  0.19124839  0.82393849  1
  N  N410  1  0.14564219  0.69124780  0.32393674  1
  N  N411  1  0.14564265  0.80875178  0.17606077  1
  N  N412  1  0.73707321  0.20903725  0.67837794  1
  N  N413  1  0.73707789  0.29096242  0.82162267  1
  N  N414  1  0.26292350  0.79096351  0.32162140  1
  N  N415  1  0.26292312  0.70903599  0.17837751  1
  N  N416  1  0.41481884  0.68005387  0.68024684  1
  N  N417  1  0.41480719  0.81994514  0.81974803  1
  N  N418  1  0.58519076  0.31994455  0.31975217  1
  N  N419  1  0.58519124  0.18005855  0.18025133  1
  N  N420  1  0.54062225  0.59990374  0.63159314  1
  N  N421  1  0.54061628  0.90009286  0.86840004  1
  N  N422  1  0.45938391  0.40009233  0.36840515  1
  N  N423  1  0.45938645  0.09990849  0.13159860  1
  O  O424  1  0.08856168  0.62101531  0.56520772  1
  O  O425  1  0.08855786  0.87898737  0.93479279  1
  O  O426  1  0.91144448  0.37898719  0.43479460  1
  O  O427  1  0.91143799  0.12101573  0.06520727  1
  O  O428  1  0.09311158  0.61403597  0.47552356  1
  O  O429  1  0.09310614  0.88596537  0.02447935  1
  O  O430  1  0.90688856  0.38596712  0.52447923  1
  O  O431  1  0.90688370  0.11403714  0.97552180  1
  O  O432  1  0.35308461  0.86599801  0.43211621  1
  O  O433  1  0.35309013  0.63400788  0.06788308  1
  O  O434  1  0.64691296  0.13400275  0.56788274  1
  O  O435  1  0.64690658  0.36599463  0.93211728  1
  O  O436  1  0.38650027  0.95437844  0.50648586  1
  O  O437  1  0.38649875  0.54562583  0.99351447  1
  O  O438  1  0.61350073  0.04562349  0.49351286  1
  O  O439  1  0.61349796  0.45437786  0.00648528  1
  O  O440  1  0.95279912  0.45994940  0.66557766  1
  O  O441  1  0.95279949  0.04005189  0.83442329  1
  O  O442  1  0.04719931  0.54004960  0.33442144  1
  O  O443  1  0.04719979  0.95995119  0.16557911  1
  O  O444  1  0.09398294  0.54622784  0.66233604  1
  O  O445  1  0.09398402  0.95377425  0.83766516  1
  O  O446  1  0.90601635  0.45377291  0.33766525  1
  O  O447  1  0.90601527  0.04622825  0.16233677  1
  O  O448  1  0.39616028  0.52107210  0.84559227  1
  O  O449  1  0.39615826  0.97892865  0.65440795  1
  O  O450  1  0.60383986  0.47892925  0.15440716  1
  O  O451  1  0.60384017  0.02107151  0.34559404  1
  O  O452  1  0.28567145  0.45864845  0.89511941  1
  O  O453  1  0.28567246  0.04135208  0.60487959  1
  O  O454  1  0.71432698  0.54135348  0.10488010  1
  O  O455  1  0.71432769  0.95864633  0.39512020  1
  O  O456  1  0.12018841  0.45679155  0.50054783  1
  O  O457  1  0.12018942  0.04321080  0.99945477  1
  O  O458  1  0.87981088  0.54320978  0.49945393  1
  O  O459  1  0.87981330  0.95679228  0.00054880  1
  O  O460  1  0.12981485  0.41400146  0.57688750  1
  O  O461  1  0.12981721  0.08599913  0.92311523  1
  O  O462  1  0.87018530  0.58599928  0.42311457  1
  O  O463  1  0.87018122  0.91399926  0.07688730  1
  O  O464  1  0.40151593  0.12582946  0.52989258  1
  O  O465  1  0.40151016  0.37417567  0.97010925  1
  O  O466  1  0.59848336  0.87416955  0.47010573  1
  O  O467  1  0.59848397  0.62582801  0.02989167  1
  O  O468  1  0.42312687  0.09703817  0.43978710  1
  O  O469  1  0.42312892  0.40296386  0.06021452  1
  O  O470  1  0.57687155  0.90296317  0.56021232  1
  O  O471  1  0.57686865  0.59703865  0.93978585  1
  O  O472  1  0.88466585  0.62775940  0.63786944  1
  O  O473  1  0.88466680  0.87224048  0.86213000  1
  O  O474  1  0.11533945  0.37224312  0.36212937  1
  O  O475  1  0.11533678  0.12775616  0.13787072  1
  O  O476  1  0.75763602  0.49203947  0.59597413  1
  O  O477  1  0.75763510  0.00795901  0.90402629  1
  O  O478  1  0.24236412  0.50796656  0.40402634  1
  O  O479  1  0.24236591  0.99203295  0.09597337  1
  O  O480  1  0.53563625  0.84272799  0.35094776  1
  O  O481  1  0.53563436  0.65727135  0.14905115  1
  O  O482  1  0.46436561  0.15726924  0.64905226  1
  O  O483  1  0.46436407  0.34272941  0.85094858  1
  O  O484  1  0.35151190  0.96163112  0.35411664  1
  O  O485  1  0.35151178  0.53837184  0.14588381  1
  O  O486  1  0.64848567  0.03837199  0.64588303  1
  O  O487  1  0.64848750  0.46162891  0.85411631  1
  O  O488  1  0.07663759  0.35122764  0.92089503  1
  O  O489  1  0.07663273  0.14877769  0.57910453  1
  O  O490  1  0.92336771  0.64877956  0.07910482  1
  O  O491  1  0.92336656  0.85122190  0.42089386  1
  O  O492  1  0.65941022  0.33492959  0.68853353  1
  O  O493  1  0.65941586  0.16507013  0.81146563  1
  O  O494  1  0.34058735  0.66507234  0.31146558  1
  O  O495  1  0.34058601  0.83492827  0.18853494  1
  O  O496  1  0.60588526  0.72024509  0.68014380  1
  O  O497  1  0.60586762  0.77974614  0.81985792  1
  O  O498  1  0.39412777  0.27974803  0.31985798  1
  O  O499  1  0.39412909  0.22025284  0.18014429  1
