LAMMPS (10 Sep 2025)
Open of file C:\Users\Acer\AppData\Local\LAMMPS USER-BFIELD Plugin 22Jul2025-MSMPI\bfieldplugin.so failed:
Loaded 0 plugins from C:\Users\Acer\AppData\Local\LAMMPS USER-BFIELD Plugin 22Jul2025-MSMPI
Loaded 1 plugins from C:\Users\Acer\AppData\Local\LAMMPS 64-bit 10Sep2025 with GUI\plugins
# 1. Initialization - NVE, NVT
# --------------------------------------------------
units lj                                             #  lk - reduced units
dimension     3                                 # simulation is conducted in 3D (another example is 2D)
atom_style  atomic                          # designates the atomic style for representing simple particles
boundary     p p p                             # boundary conditions for x, y,  and z. p =periodic, f =is non-periodic and fixed, s is non-periodic and shrink-wrapped, m is non-periodic and shrink-wrapped with a minimum value

# 2. System definition
# -------------------------------------------------
region box1 block -30 30   -30  30  -30 30    # creating a cubic/rectangular box from -30 to 30 units in all 3 spatial directions
create_box 2  box1                                 # Initializes a simulation box based on the region box1 and reserves space for two types of particles.
Created orthogonal box = (-30 -30 -30) to (30 30 30)
create_atoms 1 random 1200 12338 box1 overlap 0.3   # generate N particles of type 1  at random  positions, seeder, min distance b/n particles
Created 1200 atoms
create_atoms 2 random 500 55338 box1 overlap 0.3
Created 500 atoms

# 3. Settings
#--------------------------------------------
mass 1 1.0                                # mass of particle 1, to be 1.0
mass 2 4.0
pair_style lj/cut 4.0                 # specifies that the atoms will interact using lennard-Jones potentials
pair_coeff 1 1 1.0 1.0                # interacting with self (type 1)  depth of potential 0.1, distance is 1.0
pair_coeff 2 2 0.6 3.0
#pair_coeff 1 2

# 4. Monitoring
#--------------------------------------------
thermo 10
thermo_style custom step etotal ke pe

# 5. Run
#-----------------------------------
#a.
run 0
For more information see https://docs.lammps.org/err0028 (src/verlet.cpp:60)
Generated 1 of 1 mixed pair_coeff terms from geometric mixing rule
Step         TotEng         KinEng         PotEng
0   255700.88      0              255700.88
Loop time of 1e-06 on 1 procs for 0 steps with 1700 atoms

#b.
minimize 1.0e-6 1.0e-6 1000 100000
Generated 1 of 1 mixed pair_coeff terms from geometric mixing rule
Step         TotEng         KinEng         PotEng
0   255700.88      0              255700.88
Averages over the last 51 of 101 rows, steps 500 to 1000:
TotEng KinEng PotEng
-0.790889 0 -0.790889
Loop time of 0.460723 on 1 procs for 1000 steps with 1700 atoms

Minimization stats:
  Stopping criterion = max iterations
  Energy initial, next-to-last, final =
  Force two-norm initial, final = 1.7297886e+10 8.4033755
  Force max component initial, final = 1.1638526e+10 3.0427535
  Final line search alpha, max atom move = 0.022599902 0.06876593
  Iterations, force evaluations = 1000 1880

#=====================
#  MD
#==================

#4. Monitoring
#--------------------------------------------------
thermo 50
thermo_style custom step temp etotal pe ke press

#dump somedump all atom 100 dump.lammpstrj

dump viz all image 100 data/myimage-*.ppm type type size 600 600 zoom 1.21 shiny 0.6 fsaa yes view 60 30 box yes 0.025 axes no 0.0 0.0 center s 0.49901 0.4914 0.5028
dump_modify viz pad 9 boxcolor yellow backcolor black adiam 1 1.6 adiam 2 4.8

# 5. Run
#-----------------------------------
fix somenve all nve    # nve simulation, where fix means updating all positions and velocities
fix somelgv all langevin 1.0 1.0 0.1  13430
timestep 0.005
run 15000
Generated 1 of 1 mixed pair_coeff terms from geometric mixing rule
Step          Temp          TotEng         PotEng         KinEng         Press
1000   0             -0.8644194     -0.8644194      0             -7.6578651e-05
Averages over the last 150 of 299 rows, steps 8450 to 15900:
Temp TotEng PotEng KinEng Press
0.998165 1.32937 -0.166999 1.49637 0.00769365
